Build started 9/11/2015 1:15:48 PM.
     1>Project "\\banner.main.ad.rit.edu\students\sxt5244\IGMProfile\Documents\My stuff\Tutorials\Current\Fluid HydroDynamics\FluidSPH\FluidSPH.vcxproj" on node 2 (Build target(s)).
     1>C:\Program Files (x86)\MSBuild\Microsoft.Cpp\v4.0\V120\Microsoft.CppBuild.targets(388,5): warning MSB8028: The intermediate directory (Release\) contains files shared from another project (FluidSPH.vcxproj).  This can lead to incorrect clean and rebuild behavior.
     1>ClCompile:
         C:\Program Files (x86)\Microsoft Visual Studio 12.0\VC\bin\CL.exe /c /I"\\banner.main.ad.rit.edu\students\sxt5244\IGMProfile\Documents\My stuff\Tutorials\Current\Fluid HydroDynamics\FluidSPH\\include" /Zi /nologo /W3 /WX- /sdl /O2 /Oi /Oy- /GL /D _MBCS /Gm- /EHsc /MD /GS /Gy /fp:precise /Zc:wchar_t /Zc:forScope /Fo"Release\\" /Fd"Release\vc120.pdb" /Gd /TP /analyze- /errorReport:prompt main.cpp
         main.cpp
     1>main.cpp(150): warning C4101: 'l' : unreferenced local variable
     1>main.cpp(468): warning C4244: 'initializing' : conversion from 'double' to 'float', possible loss of data
     1>main.cpp(490): warning C4018: '<' : signed/unsigned mismatch
     1>main.cpp(541): warning C4244: 'initializing' : conversion from 'double' to 'float', possible loss of data
     1>main.cpp(1114): warning C4244: 'argument' : conversion from 'double' to 'float', possible loss of data
       Link:
         C:\Program Files (x86)\Microsoft Visual Studio 12.0\VC\bin\link.exe /ERRORREPORT:PROMPT /OUT:"\\banner.main.ad.rit.edu\students\sxt5244\IGMProfile\Documents\My stuff\Tutorials\Current\Fluid HydroDynamics\Release\HydroDynamicsSPH.exe" /NOLOGO /LIBPATH:"\\banner.main.ad.rit.edu\students\sxt5244\IGMProfile\Documents\My stuff\Tutorials\Current\Fluid HydroDynamics\FluidSPH\\lib" opengl32.lib glew32.lib glfw3.lib kernel32.lib user32.lib gdi32.lib winspool.lib comdlg32.lib advapi32.lib shell32.lib ole32.lib oleaut32.lib uuid.lib odbc32.lib odbccp32.lib /MANIFEST /MANIFESTUAC:"level='asInvoker' uiAccess='false'" /manifest:embed /DEBUG /PDB:"\\banner.main.ad.rit.edu\students\sxt5244\IGMProfile\Documents\My stuff\Tutorials\Current\Fluid HydroDynamics\Release\HydroDynamicsSPH.pdb" /OPT:REF /OPT:ICF /LTCG /TLBID:1 /DYNAMICBASE /NXCOMPAT /IMPLIB:"\\banner.main.ad.rit.edu\students\sxt5244\IGMProfile\Documents\My stuff\Tutorials\Current\Fluid HydroDynamics\Release\HydroDynamicsSPH.lib" /MACHINE:X86 /SAFESEH Release\main.obj
         Generating code
         Finished generating code
         FluidSPH.vcxproj -> \\banner.main.ad.rit.edu\students\sxt5244\IGMProfile\Documents\My stuff\Tutorials\Current\Fluid HydroDynamics\Release\HydroDynamicsSPH.exe
     1>Done Building Project "\\banner.main.ad.rit.edu\students\sxt5244\IGMProfile\Documents\My stuff\Tutorials\Current\Fluid HydroDynamics\FluidSPH\FluidSPH.vcxproj" (Build target(s)).

Build succeeded.

Time Elapsed 00:00:04.43
